<?xml version="1.0" encoding="UTF-8"?>

<!-- generated on Tue Nov 17 13:54:14 2015 by SUMO duarouter Version 0.24.0
<?xml version="1.0" encoding="UTF-8"?>

<configuration xmlns:xsi="http://www.w3.org/2001/XMLSchema-instance" xsi:noNamespaceSchemaLocation="http://sumo.dlr.de/xsd/duarouterConfiguration.xsd">

    <input>
        <net-file value="simpleT.net.xml"/>
        <trip-files value="trips.trips.xml"/>
    </input>

    <output>
        <output-file value="simpleT.rou.xml"/>
    </output>

    <processing>
        <ignore-errors value="true"/>
    </processing>

    <time>
        <begin value="0"/>
        <end value="1000.0"/>
    </time>

    <report>
        <no-step-log value="true"/>
    </report>

</configuration>
-->

<routes xmlns:xsi="http://www.w3.org/2001/XMLSchema-instance" xsi:noNamespaceSchemaLocation="http://sumo.dlr.de/xsd/routes_file.xsd">
    <vehicle id="0" depart="0.00">
        <route edges="2:0 0:1"/>
    </vehicle>
    <vehicle id="4" depart="4.00">
        <route edges="3:1 1:0"/>
    </vehicle>
    <vehicle id="5" depart="5.00">
        <route edges="3:1 1:5 5:6"/>
    </vehicle>
    <vehicle id="7" depart="7.00">
        <route edges="5:1 1:3"/>
    </vehicle>
    <vehicle id="18" depart="18.00">
        <route edges="5:1 1:0"/>
    </vehicle>
    <vehicle id="20" depart="20.00">
        <route edges="3:1 1:0"/>
    </vehicle>
    <vehicle id="25" depart="25.00">
        <route edges="1:5"/>
    </vehicle>
    <vehicle id="26" depart="26.00">
        <route edges="1:5"/>
    </vehicle>
    <vehicle id="28" depart="28.00">
        <route edges="0:1 1:5"/>
    </vehicle>
    <vehicle id="32" depart="32.00">
        <route edges="0:1 1:3"/>
    </vehicle>
    <vehicle id="34" depart="34.00">
        <route edges="5:1 1:0"/>
    </vehicle>
    <vehicle id="35" depart="35.00">
        <route edges="1:3"/>
    </vehicle>
    <vehicle id="36" depart="36.00">
        <route edges="0:1 1:5 5:6"/>
    </vehicle>
    <vehicle id="38" depart="38.00">
        <route edges="0:1 1:3"/>
    </vehicle>
    <vehicle id="40" depart="40.00">
        <route edges="1:3"/>
    </vehicle>
    <vehicle id="41" depart="41.00">
        <route edges="5:1 1:3"/>
    </vehicle>
    <vehicle id="45" depart="45.00">
        <route edges="1:5"/>
    </vehicle>
    <vehicle id="50" depart="50.00">
        <route edges="5:1"/>
    </vehicle>
    <vehicle id="52" depart="52.00">
        <route edges="1:3"/>
    </vehicle>
    <vehicle id="54" depart="54.00">
        <route edges="1:5"/>
    </vehicle>
    <vehicle id="55" depart="55.00">
        <route edges="0:1 1:5 5:6"/>
    </vehicle>
    <vehicle id="56" depart="56.00">
        <route edges="5:1 1:3"/>
    </vehicle>
    <vehicle id="62" depart="62.00">
        <route edges="5:1 1:3"/>
    </vehicle>
    <vehicle id="63" depart="63.00">
        <route edges="5:1 1:3"/>
    </vehicle>
    <vehicle id="64" depart="64.00">
        <route edges="0:1 1:5"/>
    </vehicle>
    <vehicle id="65" depart="65.00">
        <route edges="3:1 1:0"/>
    </vehicle>
    <vehicle id="67" depart="67.00">
        <route edges="2:0 0:1 1:3"/>
    </vehicle>
    <vehicle id="69" depart="69.00">
        <route edges="3:1 1:0"/>
    </vehicle>
    <vehicle id="74" depart="74.00">
        <route edges="3:1 1:5"/>
    </vehicle>
    <vehicle id="75" depart="75.00">
        <route edges="3:1"/>
    </vehicle>
    <vehicle id="85" depart="85.00">
        <route edges="3:1 1:0"/>
    </vehicle>
    <vehicle id="86" depart="86.00">
        <route edges="5:1 1:3"/>
    </vehicle>
    <vehicle id="88" depart="88.00">
        <route edges="5:1 1:3"/>
    </vehicle>
    <vehicle id="95" depart="95.00">
        <route edges="0:1 1:5"/>
    </vehicle>
    <vehicle id="96" depart="96.00">
        <route edges="0:1"/>
    </vehicle>
    <vehicle id="98" depart="98.00">
        <route edges="1:0 0:2"/>
    </vehicle>
    <vehicle id="99" depart="99.00">
        <route edges="3:1"/>
    </vehicle>
    <vehicle id="101" depart="101.00">
        <route edges="1:3 3:7"/>
    </vehicle>
    <vehicle id="109" depart="109.00">
        <route edges="5:1"/>
    </vehicle>
    <vehicle id="112" depart="112.00">
        <route edges="7:3 3:1 1:5"/>
    </vehicle>
    <vehicle id="116" depart="116.00">
        <route edges="3:1 1:5"/>
    </vehicle>
    <vehicle id="118" depart="118.00">
        <route edges="3:1"/>
    </vehicle>
    <vehicle id="121" depart="121.00">
        <route edges="0:1 1:3"/>
    </vehicle>
    <vehicle id="127" depart="127.00">
        <route edges="5:1 1:3"/>
    </vehicle>
    <vehicle id="129" depart="129.00">
        <route edges="0:1 1:5"/>
    </vehicle>
    <vehicle id="131" depart="131.00">
        <route edges="1:3"/>
    </vehicle>
    <vehicle id="138" depart="138.00">
        <route edges="3:1"/>
    </vehicle>
    <vehicle id="139" depart="139.00">
        <route edges="3:1 1:5"/>
    </vehicle>
    <vehicle id="140" depart="140.00">
        <route edges="5:1"/>
    </vehicle>
    <vehicle id="145" depart="145.00">
        <route edges="5:1"/>
    </vehicle>
    <vehicle id="149" depart="149.00">
        <route edges="5:1 1:3"/>
    </vehicle>
    <vehicle id="152" depart="152.00">
        <route edges="0:1"/>
    </vehicle>
    <vehicle id="158" depart="158.00">
        <route edges="5:1 1:3"/>
    </vehicle>
    <vehicle id="159" depart="159.00">
        <route edges="0:1 1:5"/>
    </vehicle>
    <vehicle id="164" depart="164.00">
        <route edges="3:1 1:0"/>
    </vehicle>
    <vehicle id="169" depart="169.00">
        <route edges="0:1 1:3"/>
    </vehicle>
    <vehicle id="171" depart="171.00">
        <route edges="0:1"/>
    </vehicle>
    <vehicle id="172" depart="172.00">
        <route edges="6:5 5:1"/>
    </vehicle>
    <vehicle id="173" depart="173.00">
        <route edges="5:1 1:0"/>
    </vehicle>
    <vehicle id="174" depart="174.00">
        <route edges="5:1 1:0"/>
    </vehicle>
    <vehicle id="175" depart="175.00">
        <route edges="3:1 1:0"/>
    </vehicle>
    <vehicle id="178" depart="178.00">
        <route edges="5:1 1:3"/>
    </vehicle>
    <vehicle id="187" depart="187.00">
        <route edges="1:5"/>
    </vehicle>
    <vehicle id="188" depart="188.00">
        <route edges="5:1 1:3"/>
    </vehicle>
    <vehicle id="191" depart="191.00">
        <route edges="0:1 1:3"/>
    </vehicle>
    <vehicle id="192" depart="192.00">
        <route edges="0:1 1:5"/>
    </vehicle>
    <vehicle id="193" depart="193.00">
        <route edges="3:1 1:0"/>
    </vehicle>
    <vehicle id="194" depart="194.00">
        <route edges="1:0"/>
    </vehicle>
    <vehicle id="200" depart="200.00">
        <route edges="5:1"/>
    </vehicle>
    <vehicle id="201" depart="201.00">
        <route edges="5:1 1:3"/>
    </vehicle>
    <vehicle id="204" depart="204.00">
        <route edges="5:1 1:0"/>
    </vehicle>
    <vehicle id="205" depart="205.00">
        <route edges="2:0 0:1"/>
    </vehicle>
    <vehicle id="209" depart="209.00">
        <route edges="3:1"/>
    </vehicle>
    <vehicle id="210" depart="210.00">
        <route edges="0:1 1:5"/>
    </vehicle>
    <vehicle id="213" depart="213.00">
        <route edges="0:1 1:3"/>
    </vehicle>
    <vehicle id="214" depart="214.00">
        <route edges="3:1 1:5"/>
    </vehicle>
    <vehicle id="215" depart="215.00">
        <route edges="1:0"/>
    </vehicle>
    <vehicle id="219" depart="219.00">
        <route edges="1:3"/>
    </vehicle>
    <vehicle id="225" depart="225.00">
        <route edges="0:1"/>
    </vehicle>
    <vehicle id="226" depart="226.00">
        <route edges="5:1 1:3"/>
    </vehicle>
    <vehicle id="227" depart="227.00">
        <route edges="3:1 1:0"/>
    </vehicle>
    <vehicle id="231" depart="231.00">
        <route edges="5:1 1:0"/>
    </vehicle>
    <vehicle id="232" depart="232.00">
        <route edges="1:5"/>
    </vehicle>
    <vehicle id="235" depart="235.00">
        <route edges="3:1 1:5"/>
    </vehicle>
    <vehicle id="241" depart="241.00">
        <route edges="0:1 1:5"/>
    </vehicle>
    <vehicle id="243" depart="243.00">
        <route edges="1:5"/>
    </vehicle>
    <vehicle id="244" depart="244.00">
        <route edges="1:0"/>
    </vehicle>
    <vehicle id="245" depart="245.00">
        <route edges="0:1 1:3"/>
    </vehicle>
    <vehicle id="246" depart="246.00">
        <route edges="0:1 1:5 5:6"/>
    </vehicle>
    <vehicle id="248" depart="248.00">
        <route edges="5:1 1:0"/>
    </vehicle>
    <vehicle id="249" depart="249.00">
        <route edges="3:1 1:0"/>
    </vehicle>
    <vehicle id="256" depart="256.00">
        <route edges="5:1"/>
    </vehicle>
    <vehicle id="260" depart="260.00">
        <route edges="1:5"/>
    </vehicle>
    <vehicle id="261" depart="261.00">
        <route edges="0:1"/>
    </vehicle>
    <vehicle id="266" depart="266.00">
        <route edges="3:1 1:0"/>
    </vehicle>
    <vehicle id="267" depart="267.00">
        <route edges="1:3 3:7"/>
    </vehicle>
    <vehicle id="269" depart="269.00">
        <route edges="5:1 1:0"/>
    </vehicle>
    <vehicle id="279" depart="279.00">
        <route edges="5:1 1:3"/>
    </vehicle>
    <vehicle id="280" depart="280.00">
        <route edges="1:0"/>
    </vehicle>
    <vehicle id="289" depart="289.00">
        <route edges="5:1"/>
    </vehicle>
    <vehicle id="290" depart="290.00">
        <route edges="2:0 0:1 1:5"/>
    </vehicle>
    <vehicle id="296" depart="296.00">
        <route edges="3:1 1:5 5:6"/>
    </vehicle>
    <vehicle id="300" depart="300.00">
        <route edges="5:1 1:0"/>
    </vehicle>
    <vehicle id="308" depart="308.00">
        <route edges="7:3 3:1"/>
    </vehicle>
    <vehicle id="317" depart="317.00">
        <route edges="1:3"/>
    </vehicle>
    <vehicle id="318" depart="318.00">
        <route edges="0:1 1:3"/>
    </vehicle>
    <vehicle id="319" depart="319.00">
        <route edges="1:5"/>
    </vehicle>
    <vehicle id="322" depart="322.00">
        <route edges="5:1 1:0"/>
    </vehicle>
    <vehicle id="325" depart="325.00">
        <route edges="0:1 1:5"/>
    </vehicle>
    <vehicle id="327" depart="327.00">
        <route edges="3:1 1:0"/>
    </vehicle>
    <vehicle id="328" depart="328.00">
        <route edges="3:1"/>
    </vehicle>
    <vehicle id="329" depart="329.00">
        <route edges="0:1"/>
    </vehicle>
    <vehicle id="330" depart="330.00">
        <route edges="6:5 5:1"/>
    </vehicle>
    <vehicle id="338" depart="338.00">
        <route edges="0:1"/>
    </vehicle>
    <vehicle id="341" depart="341.00">
        <route edges="3:1 1:5"/>
    </vehicle>
    <vehicle id="345" depart="345.00">
        <route edges="5:1 1:0"/>
    </vehicle>
    <vehicle id="349" depart="349.00">
        <route edges="3:1 1:0"/>
    </vehicle>
    <vehicle id="353" depart="353.00">
        <route edges="1:3 3:7"/>
    </vehicle>
    <vehicle id="358" depart="358.00">
        <route edges="0:1 1:5"/>
    </vehicle>
    <vehicle id="359" depart="359.00">
        <route edges="3:1 1:0"/>
    </vehicle>
    <vehicle id="362" depart="362.00">
        <route edges="0:1"/>
    </vehicle>
    <vehicle id="365" depart="365.00">
        <route edges="3:1"/>
    </vehicle>
    <vehicle id="367" depart="367.00">
        <route edges="1:3"/>
    </vehicle>
    <vehicle id="368" depart="368.00">
        <route edges="5:1"/>
    </vehicle>
    <vehicle id="370" depart="370.00">
        <route edges="0:1 1:3 3:7"/>
    </vehicle>
    <vehicle id="371" depart="371.00">
        <route edges="5:1 1:0 0:2"/>
    </vehicle>
    <vehicle id="373" depart="373.00">
        <route edges="1:5"/>
    </vehicle>
    <vehicle id="377" depart="377.00">
        <route edges="3:1"/>
    </vehicle>
    <vehicle id="380" depart="380.00">
        <route edges="0:1 1:5"/>
    </vehicle>
    <vehicle id="381" depart="381.00">
        <route edges="5:1"/>
    </vehicle>
    <vehicle id="384" depart="384.00">
        <route edges="1:0 0:2"/>
    </vehicle>
    <vehicle id="387" depart="387.00">
        <route edges="1:3"/>
    </vehicle>
    <vehicle id="397" depart="397.00">
        <route edges="5:1"/>
    </vehicle>
    <vehicle id="398" depart="398.00">
        <route edges="1:3 3:7"/>
    </vehicle>
    <vehicle id="400" depart="400.00">
        <route edges="1:0"/>
    </vehicle>
    <vehicle id="401" depart="401.00">
        <route edges="2:0 0:1"/>
    </vehicle>
    <vehicle id="404" depart="404.00">
        <route edges="0:1"/>
    </vehicle>
    <vehicle id="405" depart="405.00">
        <route edges="1:3"/>
    </vehicle>
    <vehicle id="406" depart="406.00">
        <route edges="1:0"/>
    </vehicle>
    <vehicle id="407" depart="407.00">
        <route edges="3:1"/>
    </vehicle>
    <vehicle id="411" depart="411.00">
        <route edges="1:3 3:7"/>
    </vehicle>
    <vehicle id="413" depart="413.00">
        <route edges="3:1 1:0"/>
    </vehicle>
    <vehicle id="429" depart="429.00">
        <route edges="1:3"/>
    </vehicle>
    <vehicle id="432" depart="432.00">
        <route edges="1:3"/>
    </vehicle>
    <vehicle id="434" depart="434.00">
        <route edges="3:1"/>
    </vehicle>
    <vehicle id="435" depart="435.00">
        <route edges="0:1 1:3"/>
    </vehicle>
    <vehicle id="436" depart="436.00">
        <route edges="3:1"/>
    </vehicle>
    <vehicle id="442" depart="442.00">
        <route edges="0:1"/>
    </vehicle>
    <vehicle id="451" depart="451.00">
        <route edges="0:1 1:3"/>
    </vehicle>
    <vehicle id="453" depart="453.00">
        <route edges="5:1 1:0 0:2"/>
    </vehicle>
    <vehicle id="454" depart="454.00">
        <route edges="0:1"/>
    </vehicle>
    <vehicle id="456" depart="456.00">
        <route edges="1:0"/>
    </vehicle>
    <vehicle id="457" depart="457.00">
        <route edges="1:3"/>
    </vehicle>
    <vehicle id="458" depart="458.00">
        <route edges="6:5 5:1 1:0"/>
    </vehicle>
    <vehicle id="462" depart="462.00">
        <route edges="0:1"/>
    </vehicle>
    <vehicle id="465" depart="465.00">
        <route edges="3:1 1:5"/>
    </vehicle>
    <vehicle id="466" depart="466.00">
        <route edges="0:1 1:5"/>
    </vehicle>
    <vehicle id="468" depart="468.00">
        <route edges="5:1 1:3"/>
    </vehicle>
    <vehicle id="471" depart="471.00">
        <route edges="5:1 1:0"/>
    </vehicle>
    <vehicle id="472" depart="472.00">
        <route edges="1:3"/>
    </vehicle>
    <vehicle id="474" depart="474.00">
        <route edges="0:1 1:3"/>
    </vehicle>
    <vehicle id="477" depart="477.00">
        <route edges="1:5 5:6"/>
    </vehicle>
    <vehicle id="479" depart="479.00">
        <route edges="6:5 5:1"/>
    </vehicle>
    <vehicle id="480" depart="480.00">
        <route edges="7:3 3:1"/>
    </vehicle>
    <vehicle id="481" depart="481.00">
        <route edges="0:1 1:5"/>
    </vehicle>
    <vehicle id="484" depart="484.00">
        <route edges="0:1 1:5"/>
    </vehicle>
    <vehicle id="485" depart="485.00">
        <route edges="3:1 1:5 5:6"/>
    </vehicle>
    <vehicle id="486" depart="486.00">
        <route edges="0:1 1:5"/>
    </vehicle>
    <vehicle id="492" depart="492.00">
        <route edges="3:1 1:0"/>
    </vehicle>
    <vehicle id="498" depart="498.00">
        <route edges="0:1 1:3"/>
    </vehicle>
    <vehicle id="502" depart="502.00">
        <route edges="1:0"/>
    </vehicle>
    <vehicle id="505" depart="505.00">
        <route edges="3:1 1:5"/>
    </vehicle>
    <vehicle id="507" depart="507.00">
        <route edges="1:0"/>
    </vehicle>
    <vehicle id="510" depart="510.00">
        <route edges="3:1 1:5"/>
    </vehicle>
    <vehicle id="511" depart="511.00">
        <route edges="3:1 1:0"/>
    </vehicle>
    <vehicle id="512" depart="512.00">
        <route edges="2:0 0:1 1:5"/>
    </vehicle>
    <vehicle id="513" depart="513.00">
        <route edges="0:1 1:5"/>
    </vehicle>
    <vehicle id="515" depart="515.00">
        <route edges="0:1 1:3"/>
    </vehicle>
    <vehicle id="517" depart="517.00">
        <route edges="1:0 0:2"/>
    </vehicle>
    <vehicle id="521" depart="521.00">
        <route edges="0:1 1:5"/>
    </vehicle>
    <vehicle id="527" depart="527.00">
        <route edges="5:1 1:3"/>
    </vehicle>
    <vehicle id="531" depart="531.00">
        <route edges="2:0 0:1 1:3"/>
    </vehicle>
    <vehicle id="532" depart="532.00">
        <route edges="1:3"/>
    </vehicle>
    <vehicle id="535" depart="535.00">
        <route edges="1:5"/>
    </vehicle>
    <vehicle id="537" depart="537.00">
        <route edges="1:0"/>
    </vehicle>
    <vehicle id="542" depart="542.00">
        <route edges="0:1 1:5"/>
    </vehicle>
    <vehicle id="547" depart="547.00">
        <route edges="1:5"/>
    </vehicle>
    <vehicle id="549" depart="549.00">
        <route edges="3:1 1:0 0:2"/>
    </vehicle>
    <vehicle id="554" depart="554.00">
        <route edges="1:3"/>
    </vehicle>
    <vehicle id="558" depart="558.00">
        <route edges="3:1 1:5"/>
    </vehicle>
    <vehicle id="561" depart="561.00">
        <route edges="3:1 1:5"/>
    </vehicle>
    <vehicle id="564" depart="564.00">
        <route edges="1:0"/>
    </vehicle>
    <vehicle id="566" depart="566.00">
        <route edges="5:1 1:0"/>
    </vehicle>
    <vehicle id="570" depart="570.00">
        <route edges="1:0"/>
    </vehicle>
    <vehicle id="576" depart="576.00">
        <route edges="5:1 1:3"/>
    </vehicle>
    <vehicle id="583" depart="583.00">
        <route edges="3:1 1:5 5:6"/>
    </vehicle>
    <vehicle id="586" depart="586.00">
        <route edges="3:1 1:5"/>
    </vehicle>
    <vehicle id="587" depart="587.00">
        <route edges="3:1"/>
    </vehicle>
    <vehicle id="590" depart="590.00">
        <route edges="3:1"/>
    </vehicle>
    <vehicle id="591" depart="591.00">
        <route edges="3:1 1:0"/>
    </vehicle>
    <vehicle id="600" depart="600.00">
        <route edges="5:1 1:0"/>
    </vehicle>
    <vehicle id="601" depart="601.00">
        <route edges="0:1 1:3 3:7"/>
    </vehicle>
    <vehicle id="602" depart="602.00">
        <route edges="1:3"/>
    </vehicle>
    <vehicle id="603" depart="603.00">
        <route edges="2:0 0:1 1:5"/>
    </vehicle>
    <vehicle id="607" depart="607.00">
        <route edges="5:1 1:0"/>
    </vehicle>
    <vehicle id="608" depart="608.00">
        <route edges="5:1 1:3"/>
    </vehicle>
    <vehicle id="609" depart="609.00">
        <route edges="1:5"/>
    </vehicle>
    <vehicle id="611" depart="611.00">
        <route edges="1:0"/>
    </vehicle>
    <vehicle id="613" depart="613.00">
        <route edges="7:3 3:1 1:0 0:2"/>
    </vehicle>
    <vehicle id="614" depart="614.00">
        <route edges="3:1"/>
    </vehicle>
    <vehicle id="617" depart="617.00">
        <route edges="0:1"/>
    </vehicle>
    <vehicle id="618" depart="618.00">
        <route edges="0:1 1:5"/>
    </vehicle>
    <vehicle id="624" depart="624.00">
        <route edges="1:3"/>
    </vehicle>
    <vehicle id="625" depart="625.00">
        <route edges="0:1 1:3"/>
    </vehicle>
    <vehicle id="627" depart="627.00">
        <route edges="5:1 1:0"/>
    </vehicle>
    <vehicle id="628" depart="628.00">
        <route edges="0:1 1:5"/>
    </vehicle>
    <vehicle id="629" depart="629.00">
        <route edges="0:1 1:5"/>
    </vehicle>
    <vehicle id="630" depart="630.00">
        <route edges="0:1 1:3 3:7"/>
    </vehicle>
    <vehicle id="632" depart="632.00">
        <route edges="1:0"/>
    </vehicle>
    <vehicle id="633" depart="633.00">
        <route edges="7:3 3:1"/>
    </vehicle>
    <vehicle id="637" depart="637.00">
        <route edges="3:1"/>
    </vehicle>
    <vehicle id="638" depart="638.00">
        <route edges="5:1 1:0"/>
    </vehicle>
    <vehicle id="644" depart="644.00">
        <route edges="5:1 1:3"/>
    </vehicle>
    <vehicle id="648" depart="648.00">
        <route edges="1:5"/>
    </vehicle>
    <vehicle id="652" depart="652.00">
        <route edges="1:5"/>
    </vehicle>
    <vehicle id="653" depart="653.00">
        <route edges="3:1 1:0"/>
    </vehicle>
    <vehicle id="654" depart="654.00">
        <route edges="2:0 0:1 1:3"/>
    </vehicle>
    <vehicle id="656" depart="656.00">
        <route edges="6:5 5:1"/>
    </vehicle>
    <vehicle id="657" depart="657.00">
        <route edges="3:1 1:5"/>
    </vehicle>
    <vehicle id="658" depart="658.00">
        <route edges="5:1"/>
    </vehicle>
    <vehicle id="660" depart="660.00">
        <route edges="1:5"/>
    </vehicle>
    <vehicle id="662" depart="662.00">
        <route edges="3:1"/>
    </vehicle>
    <vehicle id="664" depart="664.00">
        <route edges="3:1"/>
    </vehicle>
    <vehicle id="677" depart="677.00">
        <route edges="6:5 5:1 1:0"/>
    </vehicle>
    <vehicle id="683" depart="683.00">
        <route edges="5:1 1:3"/>
    </vehicle>
    <vehicle id="685" depart="685.00">
        <route edges="1:5"/>
    </vehicle>
    <vehicle id="688" depart="688.00">
        <route edges="0:1 1:3"/>
    </vehicle>
    <vehicle id="689" depart="689.00">
        <route edges="1:0"/>
    </vehicle>
    <vehicle id="691" depart="691.00">
        <route edges="3:1 1:5"/>
    </vehicle>
    <vehicle id="695" depart="695.00">
        <route edges="5:1 1:3"/>
    </vehicle>
    <vehicle id="696" depart="696.00">
        <route edges="1:5"/>
    </vehicle>
    <vehicle id="697" depart="697.00">
        <route edges="3:1"/>
    </vehicle>
    <vehicle id="699" depart="699.00">
        <route edges="7:3 3:1 1:0"/>
    </vehicle>
    <vehicle id="705" depart="705.00">
        <route edges="5:1"/>
    </vehicle>
    <vehicle id="707" depart="707.00">
        <route edges="0:1"/>
    </vehicle>
    <vehicle id="709" depart="709.00">
        <route edges="5:1 1:0"/>
    </vehicle>
    <vehicle id="711" depart="711.00">
        <route edges="0:1"/>
    </vehicle>
    <vehicle id="714" depart="714.00">
        <route edges="3:1"/>
    </vehicle>
    <vehicle id="720" depart="720.00">
        <route edges="5:1 1:3"/>
    </vehicle>
    <vehicle id="721" depart="721.00">
        <route edges="0:1"/>
    </vehicle>
    <vehicle id="723" depart="723.00">
        <route edges="5:1 1:3"/>
    </vehicle>
    <vehicle id="729" depart="729.00">
        <route edges="3:1"/>
    </vehicle>
    <vehicle id="732" depart="732.00">
        <route edges="3:1 1:5"/>
    </vehicle>
    <vehicle id="734" depart="734.00">
        <route edges="1:3"/>
    </vehicle>
    <vehicle id="737" depart="737.00">
        <route edges="3:1"/>
    </vehicle>
    <vehicle id="740" depart="740.00">
        <route edges="2:0 0:1"/>
    </vehicle>
    <vehicle id="742" depart="742.00">
        <route edges="1:0 0:2"/>
    </vehicle>
    <vehicle id="750" depart="750.00">
        <route edges="3:1 1:0"/>
    </vehicle>
    <vehicle id="751" depart="751.00">
        <route edges="3:1 1:5"/>
    </vehicle>
    <vehicle id="752" depart="752.00">
        <route edges="3:1"/>
    </vehicle>
    <vehicle id="753" depart="753.00">
        <route edges="5:1 1:3"/>
    </vehicle>
    <vehicle id="755" depart="755.00">
        <route edges="5:1 1:3"/>
    </vehicle>
    <vehicle id="756" depart="756.00">
        <route edges="1:5"/>
    </vehicle>
    <vehicle id="757" depart="757.00">
        <route edges="5:1 1:3"/>
    </vehicle>
    <vehicle id="758" depart="758.00">
        <route edges="3:1"/>
    </vehicle>
    <vehicle id="768" depart="768.00">
        <route edges="5:1"/>
    </vehicle>
    <vehicle id="769" depart="769.00">
        <route edges="1:0"/>
    </vehicle>
    <vehicle id="774" depart="774.00">
        <route edges="1:0"/>
    </vehicle>
    <vehicle id="775" depart="775.00">
        <route edges="5:1 1:0"/>
    </vehicle>
    <vehicle id="776" depart="776.00">
        <route edges="0:1 1:5 5:6"/>
    </vehicle>
    <vehicle id="777" depart="777.00">
        <route edges="1:0"/>
    </vehicle>
    <vehicle id="779" depart="779.00">
        <route edges="6:5 5:1 1:0"/>
    </vehicle>
    <vehicle id="783" depart="783.00">
        <route edges="5:1 1:0"/>
    </vehicle>
    <vehicle id="784" depart="784.00">
        <route edges="1:3"/>
    </vehicle>
    <vehicle id="787" depart="787.00">
        <route edges="1:3"/>
    </vehicle>
    <vehicle id="790" depart="790.00">
        <route edges="3:1 1:5"/>
    </vehicle>
    <vehicle id="791" depart="791.00">
        <route edges="3:1 1:5"/>
    </vehicle>
    <vehicle id="793" depart="793.00">
        <route edges="0:1 1:3 3:7"/>
    </vehicle>
    <vehicle id="795" depart="795.00">
        <route edges="0:1 1:3"/>
    </vehicle>
    <vehicle id="803" depart="803.00">
        <route edges="6:5 5:1 1:3 3:7"/>
    </vehicle>
    <vehicle id="804" depart="804.00">
        <route edges="0:1 1:5"/>
    </vehicle>
    <vehicle id="813" depart="813.00">
        <route edges="7:3 3:1"/>
    </vehicle>
    <vehicle id="817" depart="817.00">
        <route edges="5:1"/>
    </vehicle>
    <vehicle id="824" depart="824.00">
        <route edges="3:1 1:5"/>
    </vehicle>
    <vehicle id="825" depart="825.00">
        <route edges="3:1 1:5"/>
    </vehicle>
    <vehicle id="826" depart="826.00">
        <route edges="3:1 1:0"/>
    </vehicle>
    <vehicle id="828" depart="828.00">
        <route edges="3:1 1:0"/>
    </vehicle>
    <vehicle id="832" depart="832.00">
        <route edges="5:1 1:0 0:2"/>
    </vehicle>
    <vehicle id="833" depart="833.00">
        <route edges="5:1 1:3"/>
    </vehicle>
    <vehicle id="838" depart="838.00">
        <route edges="3:1 1:0"/>
    </vehicle>
    <vehicle id="843" depart="843.00">
        <route edges="1:3 3:7"/>
    </vehicle>
    <vehicle id="845" depart="845.00">
        <route edges="5:1 1:0"/>
    </vehicle>
    <vehicle id="846" depart="846.00">
        <route edges="2:0 0:1 1:3"/>
    </vehicle>
    <vehicle id="848" depart="848.00">
        <route edges="0:1"/>
    </vehicle>
    <vehicle id="852" depart="852.00">
        <route edges="7:3 3:1 1:5"/>
    </vehicle>
    <vehicle id="856" depart="856.00">
        <route edges="1:3"/>
    </vehicle>
    <vehicle id="860" depart="860.00">
        <route edges="3:1"/>
    </vehicle>
    <vehicle id="862" depart="862.00">
        <route edges="1:3"/>
    </vehicle>
    <vehicle id="864" depart="864.00">
        <route edges="2:0 0:1 1:5"/>
    </vehicle>
    <vehicle id="868" depart="868.00">
        <route edges="3:1 1:5"/>
    </vehicle>
    <vehicle id="869" depart="869.00">
        <route edges="7:3 3:1 1:0"/>
    </vehicle>
    <vehicle id="870" depart="870.00">
        <route edges="3:1 1:5"/>
    </vehicle>
    <vehicle id="875" depart="875.00">
        <route edges="0:1 1:5 5:6"/>
    </vehicle>
    <vehicle id="879" depart="879.00">
        <route edges="0:1 1:3"/>
    </vehicle>
    <vehicle id="883" depart="883.00">
        <route edges="3:1 1:0"/>
    </vehicle>
    <vehicle id="888" depart="888.00">
        <route edges="3:1"/>
    </vehicle>
    <vehicle id="889" depart="889.00">
        <route edges="0:1 1:3"/>
    </vehicle>
    <vehicle id="890" depart="890.00">
        <route edges="6:5 5:1 1:0"/>
    </vehicle>
    <vehicle id="891" depart="891.00">
        <route edges="3:1 1:0"/>
    </vehicle>
    <vehicle id="892" depart="892.00">
        <route edges="1:3"/>
    </vehicle>
    <vehicle id="896" depart="896.00">
        <route edges="6:5 5:1"/>
    </vehicle>
    <vehicle id="897" depart="897.00">
        <route edges="5:1 1:3"/>
    </vehicle>
    <vehicle id="899" depart="899.00">
        <route edges="3:1"/>
    </vehicle>
    <vehicle id="902" depart="902.00">
        <route edges="1:5"/>
    </vehicle>
    <vehicle id="905" depart="905.00">
        <route edges="5:1 1:0 0:2"/>
    </vehicle>
    <vehicle id="908" depart="908.00">
        <route edges="5:1 1:0"/>
    </vehicle>
    <vehicle id="911" depart="911.00">
        <route edges="0:1 1:3"/>
    </vehicle>
    <vehicle id="913" depart="913.00">
        <route edges="1:3"/>
    </vehicle>
    <vehicle id="918" depart="918.00">
        <route edges="0:1 1:3"/>
    </vehicle>
    <vehicle id="919" depart="919.00">
        <route edges="2:0 0:1 1:3"/>
    </vehicle>
    <vehicle id="921" depart="921.00">
        <route edges="0:1 1:3 3:7"/>
    </vehicle>
    <vehicle id="922" depart="922.00">
        <route edges="5:1 1:0"/>
    </vehicle>
    <vehicle id="929" depart="929.00">
        <route edges="2:0 0:1 1:5"/>
    </vehicle>
    <vehicle id="931" depart="931.00">
        <route edges="0:1 1:5"/>
    </vehicle>
    <vehicle id="932" depart="932.00">
        <route edges="0:1"/>
    </vehicle>
    <vehicle id="933" depart="933.00">
        <route edges="7:3 3:1 1:0 0:2"/>
    </vehicle>
    <vehicle id="934" depart="934.00">
        <route edges="0:1 1:3"/>
    </vehicle>
    <vehicle id="935" depart="935.00">
        <route edges="3:1 1:5"/>
    </vehicle>
    <vehicle id="936" depart="936.00">
        <route edges="2:0 0:1"/>
    </vehicle>
    <vehicle id="937" depart="937.00">
        <route edges="0:1 1:5"/>
    </vehicle>
    <vehicle id="940" depart="940.00">
        <route edges="1:0"/>
    </vehicle>
    <vehicle id="945" depart="945.00">
        <route edges="3:1 1:5 5:6"/>
    </vehicle>
    <vehicle id="947" depart="947.00">
        <route edges="5:1 1:3"/>
    </vehicle>
    <vehicle id="949" depart="949.00">
        <route edges="3:1 1:5 5:6"/>
    </vehicle>
    <vehicle id="950" depart="950.00">
        <route edges="5:1 1:3"/>
    </vehicle>
    <vehicle id="952" depart="952.00">
        <route edges="7:3 3:1 1:5"/>
    </vehicle>
    <vehicle id="953" depart="953.00">
        <route edges="5:1 1:0"/>
    </vehicle>
    <vehicle id="956" depart="956.00">
        <route edges="1:5"/>
    </vehicle>
    <vehicle id="957" depart="957.00">
        <route edges="1:5"/>
    </vehicle>