<?xml version="1.0" encoding="UTF-8"?>

<!-- generated on Tue Nov 17 11:40:57 2015 by SUMO polyconvert Version 0.24.0
<?xml version="1.0" encoding="UTF-8"?>

<configuration xmlns:xsi="http://www.w3.org/2001/XMLSchema-instance" xsi:noNamespaceSchemaLocation="http://sumo.dlr.de/xsd/polyconvertConfiguration.xsd">

    <input>
        <net-file value="simpleT.net.xml"/>
    </input>

    <output>
        <output-file value="simpleT.poly.xml"/>
    </output>

</configuration>
-->

<additional xmlns:xsi="http://www.w3.org/2001/XMLSchema-instance" xsi:noNamespaceSchemaLocation="http://sumo.dlr.de/xsd/additional_file.xsd">
    <location netOffset="351.00,307.00" convBoundary="0.00,0.00,420.00,195.00" origBoundary="-351.00,-307.00,69.00,-112.00" projParameter="!"/>

</additional>
